5250065
  -OEChem-05131923463D

  6  5  0     0  0  0  0  0  0999 V2000
   -1.1939    0.2138    0.0000 O   0  0  0  0  0  0  0  0  0  0  0  0
    1.1940    0.2137    0.0000 O   0  0  0  0  0  0  0  0  0  0  0  0
    0.0000   -0.4275    0.0000 C   0  5  0  0  0  0  0  0  0  0  0  0
    0.0000   -1.4973   -0.0003 H   0  0  0  0  0  0  0  0  0  0  0  0
   -1.0728    1.1779    0.0003 H   0  0  0  0  0  0  0  0  0  0  0  0
    1.0729    1.1779    0.0001 H   0  0  0  0  0  0  0  0  0  0  0  0
  1  3  1  0  0  0  0
  1  5  1  0  0  0  0
  2  3  1  0  0  0  0
  2  6  1  0  0  0  0
  3  4  1  0  0  0  0
M  CHG  1   3  -1
M  END
> <PUBCHEM_COMPOUND_CID>
5250065

> <PUBCHEM_CONFORMER_RMSD>
0.4

> <PUBCHEM_CONFORMER_DIVERSEORDER>
1

> <PUBCHEM_EFFECTIVE_ROTOR_COUNT>
0

> <PUBCHEM_PHARMACOPHORE_FEATURES>
5
1 1 acceptor
1 1 donor
1 2 acceptor
1 2 donor
3 1 2 3 anion

> <PUBCHEM_HEAVY_ATOM_COUNT>
3

> <PUBCHEM_ATOM_DEF_STEREO_COUNT>
0

> <PUBCHEM_ATOM_UDEF_STEREO_COUNT>
0

> <PUBCHEM_BOND_DEF_STEREO_COUNT>
0

> <PUBCHEM_BOND_UDEF_STEREO_COUNT>
0

> <PUBCHEM_ISOTOPIC_ATOM_COUNT>
0

> <PUBCHEM_COMPONENT_COUNT>
1

> <PUBCHEM_CACTVS_TAUTO_COUNT>
1

> <PUBCHEM_CONFORMER_ID>
00501C1100000001

> <PUBCHEM_MMFF94_ENERGY>
2.3258

> <PUBCHEM_FEATURE_SELFOVERLAP>
25.439

> <PUBCHEM_SHAPE_FINGERPRINT>
139733 1 18410856559639867525
21015797 1 18047474705468835750

> <PUBCHEM_SHAPE_MULTIPOLES>
50
1.38
0.64
0.54
0
0.07
0
-0.2
0
0
0
0
0.02
0

> <PUBCHEM_SHAPE_SELFOVERLAP>
78.044

> <PUBCHEM_SHAPE_VOLUME>
34.7

> <PUBCHEM_COORDINATE_TYPE>
2
5
10

$$$$
